Circuit: * C:\Users\denjo\Documents\E2RC1.asc

.OP point found by inspection.

Date: Wed May 30 18:43:06 2018
Total elapsed time: 0.567 seconds.

tnom = 27
temp = 27
method = modified trap
totiter = 2631
traniter = 2631
tranpoints = 1155
accept = 1122
rejected = 33
matrix size = 4
fillins = 1
solver = Normal
Matrix Compiler1: 154 bytes object code size  0.1/0.1/[0.0]
Matrix Compiler2:      22 opcodes  0.1/[0.0]/0.1

